.SUBCKT gf180mcu_fd_sc_mcu9t5v0__fill_4 VDD VDD VSS VSS
*.PININFO VDD:P VDD:P VSS:P VSS:G
.ENDS
